#
#	File Created by: Spartan Student v5 Export
#

@<TRIPOS>MOLECULE
Molecule LG1
23 21
SMALL
NO_CHARGES


@<TRIPOS>ATOM
    1   C1        -2.212376070     0.336050462     0.152453231    C.ar   1  Molecule Name
    2   C2        -1.073676070     1.092250462     0.438953231    C.ar   1  Molecule Name
    3   H3        -2.371476070     0.092750462    -0.897246769       H   1  Molecule Name
    4   H4        -0.890476070     1.353050462     1.483053231       H   1  Molecule Name
    5   H5        -0.794576070     1.862350462    -0.278346769       H   1  Molecule Name
    6   O6        -3.799576070     1.338750462     0.269953231       O   1  Molecule Name
    7   H7        -3.739476070     2.592250462    -0.330546769       H   1  Molecule Name
    8   H8        -4.505176070     0.844150462    -0.164446769       H   1  Molecule Name
    9   C9        -2.195828602    -0.976196559     1.039600456     C.3   1  Molecule Name
   10   H10       -2.914828957    -0.855297862     1.858434864       H   1  Molecule Name
   11   H11       -1.209489041    -1.076732969     1.505551656       H   1  Molecule Name
   12   C12       -2.544071126    -2.211678769     0.242707940    C.ar   1  Molecule Name
   13   C13       -3.838079265    -2.323416440    -0.289698803    C.ar   1  Molecule Name
   14   C14       -1.637939133    -3.248586066     0.003936152    C.ar   1  Molecule Name
   15   C15       -4.215140579    -3.437983551    -1.039870976    C.ar   1  Molecule Name
   16   C16       -2.009591354    -4.369292741    -0.745294280    C.ar   1  Molecule Name
   17   C17       -3.300266504    -4.462643786    -1.267090938    C.ar   1  Molecule Name
   18   H18       -5.220625952    -3.492518072    -1.445991684       H   1  Molecule Name
   19   H19       -1.308408624    -5.176494357    -0.925968202       H   1  Molecule Name
   20   H20       -3.592459460    -5.329600402    -1.851084454       H   1  Molecule Name
   21   H21       -4.547752245    -1.512564728    -0.121474230       H   1  Molecule Name
   22   O22       -0.370790427    -3.172190721     0.512735682     O.3   1  Molecule Name
   23   H23        0.163234413    -3.868261282     0.104786070       H   1  Molecule Name


@<TRIPOS>BOND
    1      1      2    ar
    2      1      3    1
    3      1      9    1
    4      2      4    1
    5      2      5    1
    6      6      8    1
    7      9     10    1
    8      9     11    1
    9      9     12    1
   10     12     13    ar
   11     12     14    ar
   12     13     15    ar
   13     14     16    ar
   14     15     17    ar
   15     15     18    1
   16     16     17    ar
   17     16     19    1
   18     17     20    1
   19     13     21    1
   20     22     23    1
   21     14     22    1
