@<TRIPOS>MOLECULE
*****
 23 23 0 0 0
SMALL
GASTEIGER

@<TRIPOS>ATOM
      1 C1         -2.2124    0.3361    0.1525 C.3     1  MOLECULE1    0.0331
      2 C2         -1.0737    1.0923    0.4390 C.3     1  MOLECULE1   -0.0266
      3 H3         -2.3715    0.0928   -0.8972 H       1  MOLECULE1    0.0572
      4 H4         -0.8905    1.3531    1.4831 H       1  MOLECULE1    0.0290
      5 H5         -0.7946    1.8624   -0.2783 H       1  MOLECULE1    0.0290
      6 O6         -3.7996    1.3388    0.2700 O.3     1  MOLECULE1   -0.4909
      7 H7         -3.7395    2.5923   -0.3305 H       1  MOLECULE1    0.1715
      8 H8         -4.5052    0.8442   -0.1644 H       1  MOLECULE1    0.1715
      9 C9         -2.1958   -0.9762    1.0396 C.3     1  MOLECULE1   -0.0004
     10 H10        -2.9148   -0.8553    1.8584 H       1  MOLECULE1    0.0338
     11 H11        -1.2095   -1.0767    1.5056 H       1  MOLECULE1    0.0338
     12 C12        -2.5441   -2.2117    0.2427 C.ar    1  MOLECULE1   -0.0036
     13 C13        -3.8381   -2.3234   -0.2897 C.ar    1  MOLECULE1   -0.0550
     14 C14        -1.6379   -3.2486    0.0039 C.ar    1  MOLECULE1    0.1201
     15 C15        -4.2151   -3.4380   -1.0399 C.ar    1  MOLECULE1   -0.0613
     16 C16        -2.0096   -4.3693   -0.7453 C.ar    1  MOLECULE1   -0.0199
     17 C17        -3.3003   -4.4626   -1.2671 C.ar    1  MOLECULE1   -0.0583
     18 H18        -5.2206   -3.4925   -1.4460 H       1  MOLECULE1    0.0618
     19 H19        -1.3084   -5.1765   -0.9260 H       1  MOLECULE1    0.0654
     20 H20        -3.5925   -5.3296   -1.8511 H       1  MOLECULE1    0.0619
     21 H21        -4.5478   -1.5126   -0.1215 H       1  MOLECULE1    0.0621
     22 O22        -0.3708   -3.1722    0.5127 O.3     1  MOLECULE1   -0.5065
     23 H23         0.1632   -3.8683    0.1048 H       1  MOLECULE1    0.2921
@<TRIPOS>BOND
     1     1     2    1
     2     1     3    1
     3     1     9    1
     4     2     4    1
     5     2     5    1
     6     6     8    1
     7     9    10    1
     8     9    11    1
     9     9    12    1
    10    12    13   ar
    11    12    14   ar
    12    13    15   ar
    13    14    16   ar
    14    15    17   ar
    15    15    18    1
    16    16    17   ar
    17    16    19    1
    18    17    20    1
    19    13    21    1
    20    22    23    1
    21    14    22    1
    22     1     6    1
    23     7     6    1
