@<TRIPOS>MOLECULE
*****
 23 23 0 0 0
SMALL
GASTEIGER

@<TRIPOS>ATOM
      1 C          -3.2003   -0.7318    2.2399 C.3     1  MOLECULE11    0.0331
      2 C          -3.5610    0.6173    2.2626 C.3     1  MOLECULE11   -0.0266
      3 H          -4.0230   -1.4448    2.2086 H       1  MOLECULE11    0.0572
      4 H          -2.7565    1.3544    2.2967 H       1  MOLECULE11    0.0290
      5 H          -4.4484    0.8853    2.8336 H       1  MOLECULE11    0.0290
      6 O          -2.5892   -1.3492    3.9084 O.3     1  MOLECULE11   -0.4909
      7 H          -3.3619   -0.9482    4.9936 H       1  MOLECULE11    0.1715
      8 H          -2.5893   -2.3141    3.8948 H       1  MOLECULE11    0.1715
      9 C          -2.1958   -0.9762    1.0396 C.3     1  MOLECULE11   -0.0004
     10 H          -1.1823   -1.0773    1.4453 H       1  MOLECULE11    0.0338
     11 H          -2.1860   -0.0876    0.3990 H       1  MOLECULE11    0.0338
     12 C          -2.5441   -2.2117    0.2427 C.ar    1  MOLECULE11   -0.0036
     13 C          -3.8381   -2.3234   -0.2897 C.ar    1  MOLECULE11   -0.0550
     14 C          -1.6379   -3.2486    0.0039 C.ar    1  MOLECULE11    0.1201
     15 C          -4.2151   -3.4380   -1.0399 C.ar    1  MOLECULE11   -0.0613
     16 C          -2.0096   -4.3693   -0.7453 C.ar    1  MOLECULE11   -0.0199
     17 C          -3.3003   -4.4626   -1.2671 C.ar    1  MOLECULE11   -0.0583
     18 H          -5.2206   -3.4925   -1.4460 H       1  MOLECULE11    0.0618
     19 H          -1.3084   -5.1765   -0.9260 H       1  MOLECULE11    0.0654
     20 H          -3.5925   -5.3296   -1.8511 H       1  MOLECULE11    0.0619
     21 H          -4.5478   -1.5126   -0.1215 H       1  MOLECULE11    0.0621
     22 O          -0.3708   -3.1722    0.5127 O.3     1  MOLECULE11   -0.5065
     23 H           0.1632   -3.8683    0.1048 H       1  MOLECULE11    0.2921
@<TRIPOS>BOND
     1     1     2    1
     2     1     3    1
     3     1     9    1
     4     2     4    1
     5     2     5    1
     6     6     8    1
     7     9    10    1
     8     9    11    1
     9     9    12    1
    10    12    13   ar
    11    12    14   ar
    12    13    15   ar
    13    14    16   ar
    14    15    17   ar
    15    15    18    1
    16    16    17   ar
    17    16    19    1
    18    17    20    1
    19    13    21    1
    20    22    23    1
    21    14    22    1
    22     1     6    1
    23     7     6    1
