#
#	File Created by: Spartan '14 Export
#

@<TRIPOS>MOLECULE
M0001
20 20
SMALL
NO_CHARGES


@<TRIPOS>ATOM
    1   C1         1.782427986     1.434277395    -0.163930974    C.ar   1  M0001
    2   C2         1.656553962     2.803646085     0.060807147    C.ar   1  M0001
    3   H3         2.208750334     1.061727704    -1.104102970       H   1  M0001
    4   H4         1.218255995     3.183335033     0.990335173       H   1  M0001
    5   H5         1.980596843     3.519412233    -0.702366323       H   1  M0001
    6   C6         1.319608560     0.392968768     0.885488325     C.3   1  M0001
    7   H7         1.174500847     0.890560512     1.850533862       H   1  M0001
    8   H8         2.114079292    -0.347218853     1.028903844       H   1  M0001
    9   C9         0.052541068    -0.266517777     0.419760370    C.ar   1  M0001
   10   C10       -1.182337793     0.153759440     0.933317480    C.ar   1  M0001
   11   C11        0.064722599    -1.275142010    -0.549689248    C.ar   1  M0001
   12   C12       -2.371350015    -0.436811762     0.500752395    C.ar   1  M0001
   13   H13       -1.222134992     0.947917179     1.675107141       H   1  M0001
   14   C14       -1.119981335    -1.869644021    -0.985761256    C.ar   1  M0001
   15   C15       -2.339766543    -1.449264372    -0.456234031    C.ar   1  M0001
   16   H16       -3.321467246    -0.103460557     0.909834565       H   1  M0001
   17   H17       -1.112765046    -2.653565944    -1.736137472       H   1  M0001
   18   H18       -3.266236922    -1.906848396    -0.792534665       H   1  M0001
   19   O19        1.263235335    -1.672694906    -1.074957916       O   1  M0001
   20   H20        1.100767069    -2.406435751    -1.689125445       H   1  M0001


@<TRIPOS>BOND
    1      1      2    ar
    2      1      3    1
    3      1      6    1
    4      2      4    1
    5      2      5    1
    6      6      7    1
    7      6      8    1
    8      6      9    1
    9      9     10    ar
   10      9     11    ar
   11     10     12    ar
   12     10     13    1
   13     11     14    ar
   14     12     15    ar
   15     12     16    1
   16     14     15    ar
   17     14     17    1
   18     15     18    1
   19     19     20    1
   20     11     19    1
#
#	File Created by: Spartan '14 Export
#

@<TRIPOS>MOLECULE
M0002
20 20
SMALL
NO_CHARGES


@<TRIPOS>ATOM
    1   C1         1.279540988     1.763039969     0.970203376    C.ar   1  M0002
    2   C2         1.291434155     2.092948451     2.324029557    C.ar   1  M0002
    3   H3         1.150740295     2.542660916     0.208716000       H   1  M0002
    4   H4         1.427434444     1.320296871     3.089730284       H   1  M0002
    5   H5         1.169049267     3.134626565     2.640522402       H   1  M0002
    6   C6         1.462361363     0.295318669     0.490332889     C.3   1  M0002
    7   H7         1.756657649    -0.336076234     1.334855295       H   1  M0002
    8   H8         2.285681588     0.305361716    -0.230996814       H   1  M0002
    9   C9         0.190816189    -0.231057387    -0.118092698    C.ar   1  M0002
   10   C10       -1.039615022     0.017650287     0.509555006    C.ar   1  M0002
   11   C11        0.197358826    -1.020650276    -1.273239013    C.ar   1  M0002
   12   C12       -2.229279911    -0.485277676    -0.020800299    C.ar   1  M0002
   13   H13       -1.073120555     0.609317090     1.421953781       H   1  M0002
   14   C14       -0.988649024    -1.526536172    -1.808973712    C.ar   1  M0002
   15   C15       -2.203774690    -1.254766890    -1.181386918    C.ar   1  M0002
   16   H16       -3.173559862    -0.278146032     0.475673997       H   1  M0002
   17   H17       -0.984423067    -2.133912892    -2.708405310       H   1  M0002
   18   H18       -3.129611476    -1.647060646    -1.593276858       H   1  M0002
   19   O19        1.389622500    -1.299170430    -1.881494514       O   1  M0002
   20   H20        1.221336344    -1.868565898    -2.648906451       H   1  M0002


@<TRIPOS>BOND
    1      1      2    ar
    2      1      3    1
    3      1      6    1
    4      2      4    1
    5      2      5    1
    6      6      7    1
    7      6      8    1
    8      6      9    1
    9      9     10    ar
   10      9     11    ar
   11     10     12    ar
   12     10     13    1
   13     11     14    ar
   14     12     15    ar
   15     12     16    1
   16     14     15    ar
   17     14     17    1
   18     15     18    1
   19     19     20    1
   20     11     19    1
#
#	File Created by: Spartan '14 Export
#

@<TRIPOS>MOLECULE
M0003
20 20
SMALL
NO_CHARGES


@<TRIPOS>ATOM
    1   C1         1.513083311     0.467143764     1.769342676    C.ar   1  M0003
    2   C2         2.226810177    -0.719152072     1.927809250    C.ar   1  M0003
    3   H3         1.103706812     0.986395775     2.643350415       H   1  M0003
    4   H4         2.610264981    -1.253489655     1.049797913       H   1  M0003
    5   H5         2.379417817    -1.150807928     2.921994043       H   1  M0003
    6   C6         1.275614686     1.076226121     0.363555079     C.3   1  M0003
    7   H7         2.135748234     0.860195690    -0.278288134       H   1  M0003
    8   H8         1.224405174     2.166681335     0.460333273       H   1  M0003
    9   C9        -0.003661340     0.541369506    -0.215320851    C.ar   1  M0003
   10   C10       -1.222182156     1.141268818     0.136900088    C.ar   1  M0003
   11   C11       -0.027699362    -0.567487338    -1.067632396    C.ar   1  M0003
   12   C12       -2.429530705     0.653453458    -0.366613692    C.ar   1  M0003
   13   H13       -1.233390777     1.996522282     0.808454543       H   1  M0003
   14   C14       -1.232048403    -1.059462711    -1.574036474    C.ar   1  M0003
   15   C15       -2.434005379    -0.445415355    -1.222851860    C.ar   1  M0003
   16   H16       -3.365306173     1.130793241    -0.088100453       H   1  M0003
   17   H17       -1.253261694    -1.917611712    -2.238052809       H   1  M0003
   18   H18       -3.374079974    -0.825158677    -1.613778484       H   1  M0003
   19   O19        1.150248484    -1.173637373    -1.406597102       O   1  M0003
   20   H20        0.955866290    -1.907827169    -2.010265025       H   1  M0003


@<TRIPOS>BOND
    1      1      2    ar
    2      1      3    1
    3      1      6    1
    4      2      4    1
    5      2      5    1
    6      6      7    1
    7      6      8    1
    8      6      9    1
    9      9     10    ar
   10      9     11    ar
   11     10     12    ar
   12     10     13    1
   13     11     14    ar
   14     12     15    ar
   15     12     16    1
   16     14     15    ar
   17     14     17    1
   18     15     18    1
   19     19     20    1
   20     11     19    1
