@<TRIPOS>MOLECULE
*****
 22 22 0 0 0
SMALL
GASTEIGER

@<TRIPOS>ATOM
      1 C          -1.7511   -1.8129    0.1561 C.3     1  MOLECULE1    0.0330
      2 C          -1.0010   -0.6500    0.3506 C.3     1  MOLECULE1   -0.0266
      3 H          -1.8838   -2.1480   -0.8702 H       1  MOLECULE1    0.0572
      4 H          -0.8441   -0.3136    1.3761 H       1  MOLECULE1    0.0290
      5 H          -1.1072    0.1513   -0.3810 H       1  MOLECULE1    0.0290
      6 O          -3.5458   -1.6708    0.5284 O.3     1  MOLECULE1   -0.4909
      7 H          -4.2567   -0.7468   -0.2408 H       1  MOLECULE1    0.1715
      8 H          -3.9321   -2.5425    0.3812 H       1  MOLECULE1    0.1715
      9 C          -1.5390   -2.9538    1.1548 C.3     1  MOLECULE1   -0.0039
     10 H          -2.0001   -3.8693    0.7669 H       1  MOLECULE1    0.0337
     11 H          -2.0001   -2.6904    2.1136 H       1  MOLECULE1    0.0337
     12 C          -0.0388   -3.1836    1.3560 C.ar    1  MOLECULE1   -0.0450
     13 C           2.6778   -3.5998    1.7203 C.ar    1  MOLECULE1   -0.0617
     14 C           0.6404   -4.0783    0.5438 C.ar    1  MOLECULE1   -0.0585
     15 C           0.6404   -2.4969    2.3503 C.ar    1  MOLECULE1   -0.0585
     16 C           1.9987   -2.7050    2.5325 C.ar    1  MOLECULE1   -0.0615
     17 C           1.9987   -4.2864    0.7260 C.ar    1  MOLECULE1   -0.0615
     18 H           0.1034   -4.6213   -0.2424 H       1  MOLECULE1    0.0620
     19 H           0.1034   -1.7895    2.9925 H       1  MOLECULE1    0.0620
     20 H           2.5357   -2.1621    3.3187 H       1  MOLECULE1    0.0618
     21 H           2.5357   -4.9939    0.0838 H       1  MOLECULE1    0.0618
     22 H           3.7518   -3.7643    1.8643 H       1  MOLECULE1    0.0618
@<TRIPOS>BOND
     1     1     2    1
     2     1     3    1
     3     2     4    1
     4     2     5    1
     5     6     8    1
     6     9    10    1
     7     9    11    1
     8     1     9    1
     9    12    15   ar
    10    15    16   ar
    11    13    16   ar
    12    13    17   ar
    13    14    17   ar
    14    12    14   ar
    15    16    20    1
    16    17    21    1
    17    13    22    1
    18    14    18    1
    19    15    19    1
    20     9    12    1
    21     1     6    1
    22     6     7    1
