@<TRIPOS>MOLECULE
*****
 6 5 0 0 0
SMALL
GASTEIGER

@<TRIPOS>ATOM
      1 C          -7.7695    4.4425    0.0011 C.2     1  LIG1       -0.1058
      2 C          -7.2683    3.2044   -0.0034 C.2     1  LIG1       -0.1058
      3 H          -8.5840    4.7144    0.6652 H       1  LIG1        0.0529
      4 H          -7.3753    5.2086   -0.6593 H       1  LIG1        0.0529
      5 H          -7.6625    2.4384    0.6571 H       1  LIG1        0.0529
      6 H          -6.4539    2.9324   -0.6675 H       1  LIG1        0.0529
@<TRIPOS>BOND
     1     1     2    2
     2     1     3    1
     3     1     4    1
     4     2     5    1
     5     2     6    1
