@<TRIPOS>MOLECULE
*****
 9 8 0 0 0
SMALL
GASTEIGER

@<TRIPOS>ATOM
      1 C          -1.7510   -1.8130    0.1560 C.3     1  LIG1        0.0170
      2 C          -1.0010   -0.6500    0.3510 C.3     1  LIG1       -0.0301
      3 O          -3.5460   -1.6710    0.5280 O.3     1  LIG1       -0.4933
      4 H          -1.6000   -2.6240    0.8660 H       1  LIG1        0.0532
      5 H          -1.8840   -2.1480   -0.8700 H       1  LIG1        0.0532
      6 H          -0.8440   -0.3140    1.3760 H       1  LIG1        0.0287
      7 H          -1.1070    0.1510   -0.3810 H       1  LIG1        0.0287
      8 H          -4.2570   -0.7470   -0.2410 H       1  LIG1        0.1713
      9 H          -3.9320   -2.5430    0.3810 H       1  LIG1        0.1713
@<TRIPOS>BOND
     1     1     2    1
     2     1     4    1
     3     1     5    1
     4     2     6    1
     5     2     7    1
     6     3     9    1
     7     8     3    1
     8     1     3    1
