# Title Card Required
# Created by GaussView 5.0.9
#

#
#

@<TRIPOS>MOLECULE
Molecule Name
32 27
SMALL
NO_CHARGES


@<TRIPOS>ATOM
1 C1    -1.7511    -1.8129     0.1561 C
2 C2    -1.0010    -0.6500     0.3506 C
3 H3    -1.6004    -2.6235     0.8657 H
4 H4    -1.8838    -2.1480    -0.8702 H
5 H5    -0.8441    -0.3136     1.3761 H
6 H6    -1.1072     0.1513    -0.3810 H
7 C7     2.5319    -0.8605    -0.1239 C
8 C8     3.8409    -1.3300    -0.3256 C
9 H9     3.9812    -2.3870    -0.5270 H
10 C10     4.9268    -0.4648    -0.2634 C
11 H11     5.9269    -0.8630    -0.4229 H
12 C12     4.7669     0.8997     0.0004 C
13 C13     3.4623     1.3584     0.2046 C
14 H14     3.2963     2.4125     0.4170 H
15 C15     2.3615     0.5091     0.1459 C
16 H16     1.3617     0.8941     0.3106 H
17 C17     5.9438     1.8389     0.0267 C
18 H18     6.1329     2.2852    -0.9575 H
19 H19     5.7823     2.6629     0.7284 H
20 C20    -4.4070     1.3364     1.0446 C
21 H21    -3.3212     1.2625     0.9399 H
22 H22    -4.6859     2.3229     1.4137 H
23 C23    -5.0761     1.0870    -0.2944 C
24 O24    -5.7750     1.9371    -0.8288 O
25 O25    -4.8551    -0.0869    -0.8377 O
26 O26     1.5255    -1.7310    -0.1927 O
27 H27     0.5930    -1.3078    -0.0071 H
28 H28    -4.6927     0.5629     1.7618 H
29 H29     6.8599     1.3219     0.3284 H
30 O30    -3.5458    -1.6708     0.5284 O
31 H31    -4.2567    -0.7468    -0.2408 H
32 H32    -3.9321    -2.5425     0.3812 H
@<TRIPOS>BOND
1 1 2 Ar
2 1 3 1
3 1 4 1
4 2 5 1
5 2 6 1
6 7 8 Ar
7 7 15 Ar
8 7 26 Ar
9 8 9 1
10 8 10 Ar
11 10 11 1
12 10 12 Ar
13 12 13 Ar
14 12 17 1
15 13 14 1
16 13 15 Ar
17 15 16 1
18 17 18 1
19 17 19 1
20 17 29 1
21 20 21 1
22 20 22 1
23 20 23 1
24 20 28 1
25 23 24 2
26 23 25 Ar
27 30 32 1
